Circuit: * D:\2017\PROJETOS PESSOAIS 2017\LighterBoard\Draft1.asc

Direct Newton iteration for .op point succeeded.

Date: Wed Jul 19 13:58:15 2017
Total elapsed time: 0.145 seconds.

tnom = 27
temp = 27
method = modified trap
totiter = 2354
traniter = 2345
tranpoints = 938
accept = 811
rejected = 127
matrix size = 9
fillins = 1
solver = Normal
Matrix Compiler1: 394 bytes object code size  0.2/0.4/[0.1]
Matrix Compiler2: 825 bytes object code size  0.3/0.3/[0.1]

