Circuit: * D:\2017\PROJETOS PESSOAIS 2017\LighterBoard\LighterBoard2.asc

Direct Newton iteration failed to find .op point.  (Use ".option noopiter" to skip.)
Starting Gmin stepping
Gmin = 10
Gmin = 1.07374
Gmin = 0.115292
Gmin = 0.0123794
Gmin = 0.00132923
Gmin = 0.000142725
Gmin = 1.5325e-005
Gmin = 1.6455e-006
Gmin = 1.76685e-007
Gmin = 1.89714e-008
Gmin = 2.03704e-009
Gmin = 2.18725e-010
Gmin = 2.34854e-011
Gmin = 2.52173e-012
Gmin = 2.70769e-013
Gmin = 0
Gmin stepping succeeded in finding the operating point.


Date: Fri Jul 21 02:11:23 2017
Total elapsed time: 2.504 seconds.

tnom = 27
temp = 200
method = modified trap
totiter = 411938
traniter = 411478
tranpoints = 122086
accept = 91478
rejected = 30608
matrix size = 31
fillins = 10
solver = Normal
Matrix Compiler1: 2.01 KB object code size  1.0/0.5/[0.3]
Matrix Compiler2: off  [0.4]/0.6/0.9

