Circuit: * D:\2017\PROJETOS PESSOAIS 2017\LighterBoard\LighterBoard.asc

Direct Newton iteration for .op point succeeded.
Changing Tseed to 2e-013
Changing Tseed to 2e-015
Changing Tseed to 2e-012
Changing Tseed to 2e-016
Changing Tseed to 2e-011
Changing Tseed to 2e-017
Changing Tseed to 2e-010
Heightened Def Con from 2e-010 to 6.2e-009
Heightened Def Con from 0.138 to 0.138
Heightened Def Con from 0.201002 to 0.201002
Heightened Def Con from 0.343002 to 0.343002
Heightened Def Con from 0.368 to 0.368
Heightened Def Con from 0.418 to 0.418
Heightened Def Con from 0.697196 to 0.697196
Heightened Def Con from 0.704 to 0.704
Heightened Def Con from 0.834 to 0.834
Heightened Def Con from 0.983002 to 0.983002

Date: Thu Jul 20 23:05:21 2017
Total elapsed time: 11.337 seconds.

tnom = 27
temp = 50
method = modified trap
totiter = 429107
traniter = 429076
tranpoints = 100986
accept = 75129
rejected = 25860
matrix size = 109
fillins = 98
solver = Normal
Thread vector: 24.6/21.0[2] 7.5/6.6[2] 2.9/2.0[2] 1.0/1.5[1]  2592/500
Matrix Compiler1: 11.50 KB object code size  3.8/1.7/[1.0]
Matrix Compiler2: 10.45 KB object code size  1.3/2.0/[1.3]

